Version 4
SHEET 1 3736 964
WIRE 288 -240 288 -288
WIRE 288 -240 160 -240
WIRE 416 -240 288 -240
WIRE 720 -240 720 -288
WIRE 720 -240 592 -240
WIRE 848 -240 720 -240
WIRE 160 -208 160 -240
WIRE 592 -208 592 -240
WIRE 416 -192 416 -240
WIRE 848 -192 848 -240
WIRE 160 -80 160 -128
WIRE 288 -80 160 -80
WIRE 416 -80 416 -128
WIRE 416 -80 288 -80
WIRE 592 -80 592 -128
WIRE 720 -80 592 -80
WIRE 848 -80 848 -128
WIRE 848 -80 720 -80
WIRE 288 -16 288 -80
WIRE 720 -16 720 -80
WIRE 288 112 288 64
WIRE 720 112 720 64
WIRE 288 256 288 192
WIRE 288 256 176 256
WIRE 416 256 288 256
WIRE 720 256 720 192
WIRE 720 256 608 256
WIRE 848 256 720 256
WIRE 176 288 176 256
WIRE 608 288 608 256
WIRE 416 304 416 256
WIRE 848 304 848 256
WIRE 176 416 176 368
WIRE 288 416 176 416
WIRE 416 416 416 368
WIRE 416 416 288 416
WIRE 608 416 608 368
WIRE 720 416 608 416
WIRE 848 416 848 368
WIRE 848 416 720 416
WIRE 288 448 288 416
WIRE 720 448 720 416
WIRE 2752 496 2656 496
WIRE 2864 496 2816 496
WIRE 3056 496 2864 496
WIRE 896 544 752 544
WIRE 1456 560 1376 560
WIRE 1616 560 1536 560
WIRE 2480 560 2320 560
WIRE 1024 576 960 576
WIRE 3056 576 3056 496
WIRE 3360 576 3056 576
WIRE 752 592 752 544
WIRE 784 592 752 592
WIRE 1200 592 1088 592
WIRE 2864 592 2864 496
WIRE 2928 592 2864 592
WIRE 896 608 896 544
WIRE 896 608 848 608
WIRE 1024 608 896 608
WIRE 2320 608 2320 560
WIRE 2368 608 2320 608
WIRE 3056 608 3056 576
WIRE 3056 608 2992 608
WIRE 720 624 720 448
WIRE 784 624 720 624
WIRE 2480 624 2480 560
WIRE 2480 624 2432 624
WIRE 2544 624 2480 624
WIRE 2656 624 2656 496
WIRE 2656 624 2624 624
WIRE 2688 624 2656 624
WIRE 2864 624 2768 624
WIRE 2928 624 2864 624
WIRE 1616 640 1616 560
WIRE 2144 640 1616 640
WIRE 2288 640 2208 640
WIRE 2368 640 2288 640
WIRE 960 688 960 576
WIRE 1088 688 960 688
WIRE 1200 688 1200 592
WIRE 1200 688 1168 688
WIRE 1232 688 1200 688
WIRE 1376 688 1376 560
WIRE 1376 688 1312 688
WIRE 1408 688 1376 688
WIRE 2864 688 2864 624
WIRE 960 704 960 688
WIRE 1616 704 1616 640
WIRE 1616 704 1472 704
WIRE 2288 704 2288 640
WIRE 1408 720 1344 720
WIRE 960 800 960 784
WIRE 1088 800 960 800
WIRE 1200 800 1168 800
WIRE 1232 800 1200 800
WIRE 1344 800 1344 720
WIRE 1344 800 1312 800
WIRE 2864 800 2864 752
WIRE 704 832 544 832
WIRE 1344 832 1344 800
WIRE 2288 848 2288 784
WIRE 960 864 960 800
WIRE 1024 864 960 864
WIRE 544 880 544 832
WIRE 576 880 544 880
WIRE 1200 880 1200 800
WIRE 1200 880 1088 880
WIRE 704 896 704 832
WIRE 704 896 640 896
WIRE 1024 896 704 896
WIRE 288 912 288 448
WIRE 576 912 288 912
WIRE 1344 944 1344 912
FLAG 288 448 v1
FLAG 720 448 v2
FLAG 1344 944 0
FLAG 2288 848 0
FLAG 2864 800 0
SYMBOL voltage 288 -384 R0
SYMATTR InstName V1
SYMBOL cap 400 -192 R0
SYMATTR InstName C1
SYMATTR Value 1p
SYMBOL res 144 -224 R0
SYMATTR InstName R1
SYMATTR Value 500k
SYMBOL voltage 288 96 R0
SYMATTR InstName V2
SYMBOL cap 400 304 R0
SYMATTR InstName C2
SYMATTR Value 10p
SYMBOL res 160 272 R0
SYMATTR InstName R3
SYMATTR Value 1,5M
SYMBOL res 272 -32 R0
SYMATTR InstName R2
SYMATTR Value 2k
SYMBOL voltage 720 -384 R0
SYMATTR InstName V3
SYMBOL cap 832 -192 R0
SYMATTR InstName C3
SYMATTR Value 1p
SYMBOL res 576 -224 R0
SYMATTR InstName R4
SYMATTR Value 500k
SYMBOL voltage 720 96 R0
SYMATTR InstName V4
SYMBOL cap 832 304 R0
SYMATTR InstName C4
SYMATTR Value 10p
SYMBOL res 592 272 R0
SYMATTR InstName R5
SYMATTR Value 1,5M
SYMBOL res 704 -32 R0
SYMATTR InstName R6
SYMATTR Value 2k
SYMBOL OpAmps\\opamp 1056 816 R0
SYMATTR InstName U1
SYMBOL OpAmps\\opamp 1056 528 R0
SYMATTR InstName U3
SYMBOL res 944 688 R0
SYMATTR InstName R7
SYMATTR Value 990
SYMBOL res 1184 672 R90
WINDOW 0 0 56 VBottom 2
WINDOW 3 32 56 VTop 2
SYMATTR InstName R8
SYMATTR Value 5,7k
SYMBOL res 1184 784 R90
WINDOW 0 0 56 VBottom 2
WINDOW 3 32 56 VTop 2
SYMATTR InstName R9
SYMATTR Value 5,7k
SYMBOL res 1328 672 R90
WINDOW 0 0 56 VBottom 2
WINDOW 3 32 56 VTop 2
SYMATTR InstName R10
SYMATTR Value 1k
SYMBOL OpAmps\\opamp 1440 640 R0
SYMATTR InstName U2
SYMBOL res 1328 784 R90
WINDOW 0 0 56 VBottom 2
WINDOW 3 32 56 VTop 2
SYMATTR InstName R11
SYMATTR Value 1k
SYMBOL res 1328 816 R0
SYMATTR InstName R12
SYMATTR Value 3,16k
SYMBOL res 1552 544 R90
WINDOW 0 0 56 VBottom 2
WINDOW 3 32 56 VTop 2
SYMATTR InstName R13
SYMATTR Value 3,16k
SYMBOL OpAmps\\opamp 816 544 R0
SYMATTR InstName U4
SYMBOL OpAmps\\opamp 608 832 R0
SYMATTR InstName U5
SYMBOL cap 2208 624 R90
WINDOW 0 0 32 VBottom 2
WINDOW 3 32 32 VTop 2
SYMATTR InstName C5
SYMATTR Value 4,7micro
SYMBOL res 2272 688 R0
SYMATTR InstName R14
SYMATTR Value 169,31k
SYMBOL OpAmps\\opamp 2400 560 R0
SYMATTR InstName U6
SYMBOL res 2640 608 R90
WINDOW 0 0 56 VBottom 2
WINDOW 3 32 56 VTop 2
SYMATTR InstName R15
SYMATTR Value 5,63k
SYMBOL res 2784 608 R90
WINDOW 0 0 56 VBottom 2
WINDOW 3 32 56 VTop 2
SYMATTR InstName R16
SYMATTR Value 5,63k
SYMBOL cap 2816 480 R90
WINDOW 0 0 32 VBottom 2
WINDOW 3 32 32 VTop 2
SYMATTR InstName C6
SYMATTR Value 1micro
SYMBOL cap 2880 752 R180
WINDOW 0 24 56 Left 2
WINDOW 3 24 8 Left 2
SYMATTR InstName C7
SYMATTR Value 2micro
SYMBOL OpAmps\\opamp 2960 544 R0
SYMATTR InstName U7
SYMBOL ADC\\AD4000 3632 576 R0
SYMATTR InstName U8
